
Version,
  9.5;                                    !- Version Identifier

Timestep,
  6;                                      !- Number of Timesteps per Hour

Building,
  Building 1,                             !- Name
  0,                                      !- North Axis {deg}
  City,                                   !- Terrain
  ,                                       !- Loads Convergence Tolerance Value {W}
  ,                                       !- Temperature Convergence Tolerance Value {deltaC}
  FullExteriorWithReflections,            !- Solar Distribution
  ,                                       !- Maximum Number of Warmup Days
  ;                                       !- Minimum Number of Warmup Days

Zone,
  1_zonename_80f89f28,                    !- Name
  0,                                      !- Direction of Relative North {deg}
  0,                                      !- X Origin {m}
  0,                                      !- Y Origin {m}
  0,                                      !- Z Origin {m}
  ,                                       !- Type
  1,                                      !- Multiplier
  ,                                       !- Ceiling Height {m}
  ,                                       !- Volume {m3}
  ,                                       !- Floor Area {m2}
  ,                                       !- Zone Inside Convection Algorithm
  ,                                       !- Zone Outside Convection Algorithm
  Yes;                                    !- Part of Total Floor Area

BuildingSurface:Detailed,
  AdiabaticWall_2432ddde_0,               !- Name
  Wall,                                   !- Surface Type
  Generic Interior Floor,                 !- Construction Name
  1_zonename_80f89f28,                    !- Zone Name
  Adiabatic,                              !- Outside Boundary Condition
  ,                                       !- Outside Boundary Condition Object
  NoSun,                                  !- Sun Exposure
  NoWind,                                 !- Wind Exposure
  ,                                       !- View Factor to Ground
  ,                                       !- Number of Vertices
  0, 2.09095001794528, 3.05,              !- X,Y,Z Vertex 1 {m}
  0, 2.09095001794528, 0,                 !- X,Y,Z Vertex 2 {m}
  4.18190003589056, 2.09095001794528, 0,  !- X,Y,Z Vertex 3 {m}
  4.18190003589056, 2.09095001794528, 3.05; !- X,Y,Z Vertex 4 {m}

BuildingSurface:Detailed,
  ExposedWall_8cddfc1b_0,                 !- Name
  Wall,                                   !- Surface Type
  ExteriorWall_05cef855,                  !- Construction Name
  1_zonename_80f89f28,                    !- Zone Name
  Outdoors,                               !- Outside Boundary Condition
  ,                                       !- Outside Boundary Condition Object
  SunExposed,                             !- Sun Exposure
  WindExposed,                            !- Wind Exposure
  ,                                       !- View Factor to Ground
  ,                                       !- Number of Vertices
  4.18190003589056, 2.09095001794528, 3.05, !- X,Y,Z Vertex 1 {m}
  4.18190003589056, 2.09095001794528, 0,  !- X,Y,Z Vertex 2 {m}
  4.18190003589056, 4.18190003589056, 0,  !- X,Y,Z Vertex 3 {m}
  4.18190003589056, 4.18190003589056, 3.05; !- X,Y,Z Vertex 4 {m}

BuildingSurface:Detailed,
  ExposedWall_be2f1e82_0,                 !- Name
  Wall,                                   !- Surface Type
  ExteriorWall_05cef855,                  !- Construction Name
  1_zonename_80f89f28,                    !- Zone Name
  Outdoors,                               !- Outside Boundary Condition
  ,                                       !- Outside Boundary Condition Object
  SunExposed,                             !- Sun Exposure
  WindExposed,                            !- Wind Exposure
  ,                                       !- View Factor to Ground
  ,                                       !- Number of Vertices
  0, 4.18190003589056, 3.05,              !- X,Y,Z Vertex 1 {m}
  0, 4.18190003589056, 0,                 !- X,Y,Z Vertex 2 {m}
  0, 2.09095001794528, 0,                 !- X,Y,Z Vertex 3 {m}
  0, 2.09095001794528, 3.05;              !- X,Y,Z Vertex 4 {m}

BuildingSurface:Detailed,
  ExposedWall_e243dded_0,                 !- Name
  Wall,                                   !- Surface Type
  ExteriorWall_05cef855,                  !- Construction Name
  1_zonename_80f89f28,                    !- Zone Name
  Outdoors,                               !- Outside Boundary Condition
  ,                                       !- Outside Boundary Condition Object
  SunExposed,                             !- Sun Exposure
  WindExposed,                            !- Wind Exposure
  ,                                       !- View Factor to Ground
  ,                                       !- Number of Vertices
  4.18190003589056, 4.18190003589056, 3.05, !- X,Y,Z Vertex 1 {m}
  4.18190003589056, 4.18190003589056, 0,  !- X,Y,Z Vertex 2 {m}
  0, 4.18190003589056, 0,                 !- X,Y,Z Vertex 3 {m}
  0, 4.18190003589056, 3.05;              !- X,Y,Z Vertex 4 {m}

FenestrationSurface:Detailed,
  ExposedWall_e243dded_0_Glz0,            !- Name
  Window,                                 !- Surface Type
  NGlass_7b80efc2,                        !- Construction Name
  ExposedWall_e243dded_0,                 !- Building Surface Name
  ,                                       !- Outside Boundary Condition Object
  ,                                       !- View Factor to Ground
  ,                                       !- Frame and Divider Name
  ,                                       !- Multiplier
  ,                                       !- Number of Vertices
  3.9205312836474, 4.18190003589056, 2.745, !- X,Y,Z Vertex 1 {m}
  3.9205312836474, 4.18190003589056, 0.305, !- X,Y,Z Vertex 2 {m}
  0.26136875224316, 4.18190003589056, 0.305, !- X,Y,Z Vertex 3 {m}
  0.26136875224316, 4.18190003589056, 2.745; !- X,Y,Z Vertex 4 {m}

BuildingSurface:Detailed,
  Floor_dec48443_0,                       !- Name
  Floor,                                  !- Surface Type
  Generic Interior Floor,                 !- Construction Name
  1_zonename_80f89f28,                    !- Zone Name
  Adiabatic,                              !- Outside Boundary Condition
  ,                                       !- Outside Boundary Condition Object
  NoSun,                                  !- Sun Exposure
  NoWind,                                 !- Wind Exposure
  ,                                       !- View Factor to Ground
  ,                                       !- Number of Vertices
  4.18190003589056, 4.18190003589056, 0,  !- X,Y,Z Vertex 1 {m}
  4.18190003589056, 2.09095001794528, 0,  !- X,Y,Z Vertex 2 {m}
  0, 2.09095001794528, 0,                 !- X,Y,Z Vertex 3 {m}
  0, 4.18190003589056, 0;                 !- X,Y,Z Vertex 4 {m}

BuildingSurface:Detailed,
  RoofCeiling_e5abb674_0,                 !- Name
  Ceiling,                                !- Surface Type
  Generic Interior Ceiling,               !- Construction Name
  1_zonename_80f89f28,                    !- Zone Name
  Adiabatic,                              !- Outside Boundary Condition
  ,                                       !- Outside Boundary Condition Object
  NoSun,                                  !- Sun Exposure
  NoWind,                                 !- Wind Exposure
  ,                                       !- View Factor to Ground
  ,                                       !- Number of Vertices
  4.18190003589056, 2.09095001794528, 3.05, !- X,Y,Z Vertex 1 {m}
  4.18190003589056, 4.18190003589056, 3.05, !- X,Y,Z Vertex 2 {m}
  0, 4.18190003589056, 3.05,              !- X,Y,Z Vertex 3 {m}
  0, 2.09095001794528, 3.05;              !- X,Y,Z Vertex 4 {m}

ZoneControl:Thermostat,
  1_zonename_80f89f28 Thermostat,         !- Name
  1_zonename_80f89f28,                    !- Zone or ZoneList Name
  1_zonename_80f89f28 Thermostat Schedule, !- Control Type Schedule Name
  ThermostatSetpoint:DualSetpoint,        !- Control 1 Object Type
  Thermostat Setpoint Dual Setpoint 1,    !- Control 1 Name
  ,                                       !- Control 2 Object Type
  ,                                       !- Control 2 Name
  ,                                       !- Control 3 Object Type
  ,                                       !- Control 3 Name
  ,                                       !- Control 4 Object Type
  ,                                       !- Control 4 Name
  0;                                      !- Temperature Difference Between Cutout And Setpoint {deltaC}

Schedule:Compact,
  1_zonename_80f89f28 Thermostat Schedule, !- Name
  1_zonename_80f89f28 Thermostat Schedule Type Limits, !- Schedule Type Limits Name
  Through: 12/31,                         !- Field 1
  For: AllDays,                           !- Field 2
  Until: 24:00,                           !- Field 3
  4;                                      !- Field 4

ScheduleTypeLimits,
  1_zonename_80f89f28 Thermostat Schedule Type Limits, !- Name
  0,                                      !- Lower Limit Value {BasedOnField A3}
  4,                                      !- Upper Limit Value {BasedOnField A3}
  DISCRETE;                               !- Numeric Type

ThermostatSetpoint:DualSetpoint,
  Thermostat Setpoint Dual Setpoint 1,    !- Name
  ApartmentMidRise HTGSETP_APT_SCH,       !- Heating Setpoint Temperature Schedule Name
  ApartmentMidRise CLGSETP_APT_SCH;       !- Cooling Setpoint Temperature Schedule Name

ScheduleTypeLimits,
  Temperature,                            !- Name
  -273.15,                                !- Lower Limit Value {BasedOnField A3}
  ,                                       !- Upper Limit Value {BasedOnField A3}
  Continuous,                             !- Numeric Type
  temperature;                            !- Unit Type

Schedule:Day:Interval,
  ApartmentMidRise HTGSETP_APT_SCH_Default, !- Name
  Temperature,                            !- Schedule Type Limits Name
  No,                                     !- Interpolate to Timestep
  24:00,                                  !- Time 1 {hh:mm}
  21.7;                                   !- Value Until Time 1

Schedule:Week:Daily,
  ApartmentMidRise HTGSETP_APT_SCH Week Rule - Jan1-Dec31, !- Name
  ApartmentMidRise HTGSETP_APT_SCH_Default, !- Sunday Schedule:Day Name
  ApartmentMidRise HTGSETP_APT_SCH_Default, !- Monday Schedule:Day Name
  ApartmentMidRise HTGSETP_APT_SCH_Default, !- Tuesday Schedule:Day Name
  ApartmentMidRise HTGSETP_APT_SCH_Default, !- Wednesday Schedule:Day Name
  ApartmentMidRise HTGSETP_APT_SCH_Default, !- Thursday Schedule:Day Name
  ApartmentMidRise HTGSETP_APT_SCH_Default, !- Friday Schedule:Day Name
  ApartmentMidRise HTGSETP_APT_SCH_Default, !- Saturday Schedule:Day Name
  ApartmentMidRise HTGSETP_APT_SCH_Default, !- Holiday Schedule:Day Name
  ApartmentMidRise HTGSETP_APT_SCH_SmrDsn 1, !- SummerDesignDay Schedule:Day Name
  ApartmentMidRise HTGSETP_APT_SCH_WntrDsn 1, !- WinterDesignDay Schedule:Day Name
  ApartmentMidRise HTGSETP_APT_SCH_Default, !- CustomDay1 Schedule:Day Name
  ApartmentMidRise HTGSETP_APT_SCH_Default; !- CustomDay2 Schedule:Day Name

Schedule:Year,
  ApartmentMidRise HTGSETP_APT_SCH,       !- Name
  Temperature,                            !- Schedule Type Limits Name
  ApartmentMidRise HTGSETP_APT_SCH Week Rule - Jan1-Dec31, !- Schedule:Week Name 1
  1,                                      !- Start Month 1
  1,                                      !- Start Day 1
  12,                                     !- End Month 1
  31;                                     !- End Day 1

Schedule:Day:Interval,
  ApartmentMidRise HTGSETP_APT_SCH_SmrDsn 1, !- Name
  Temperature,                            !- Schedule Type Limits Name
  No,                                     !- Interpolate to Timestep
  24:00,                                  !- Time 1 {hh:mm}
  21.7;                                   !- Value Until Time 1

Schedule:Day:Interval,
  ApartmentMidRise HTGSETP_APT_SCH_WntrDsn 1, !- Name
  Temperature,                            !- Schedule Type Limits Name
  No,                                     !- Interpolate to Timestep
  24:00,                                  !- Time 1 {hh:mm}
  21.7;                                   !- Value Until Time 1

Schedule:Day:Interval,
  ApartmentMidRise CLGSETP_APT_SCH_Default, !- Name
  Temperature,                            !- Schedule Type Limits Name
  No,                                     !- Interpolate to Timestep
  24:00,                                  !- Time 1 {hh:mm}
  24.4;                                   !- Value Until Time 1

Schedule:Week:Daily,
  ApartmentMidRise CLGSETP_APT_SCH Week Rule - Jan1-Dec31, !- Name
  ApartmentMidRise CLGSETP_APT_SCH_Default, !- Sunday Schedule:Day Name
  ApartmentMidRise CLGSETP_APT_SCH_Default, !- Monday Schedule:Day Name
  ApartmentMidRise CLGSETP_APT_SCH_Default, !- Tuesday Schedule:Day Name
  ApartmentMidRise CLGSETP_APT_SCH_Default, !- Wednesday Schedule:Day Name
  ApartmentMidRise CLGSETP_APT_SCH_Default, !- Thursday Schedule:Day Name
  ApartmentMidRise CLGSETP_APT_SCH_Default, !- Friday Schedule:Day Name
  ApartmentMidRise CLGSETP_APT_SCH_Default, !- Saturday Schedule:Day Name
  ApartmentMidRise CLGSETP_APT_SCH_Default, !- Holiday Schedule:Day Name
  ApartmentMidRise CLGSETP_APT_SCH_SmrDsn 1, !- SummerDesignDay Schedule:Day Name
  ApartmentMidRise CLGSETP_APT_SCH_WntrDsn 1, !- WinterDesignDay Schedule:Day Name
  ApartmentMidRise CLGSETP_APT_SCH_Default, !- CustomDay1 Schedule:Day Name
  ApartmentMidRise CLGSETP_APT_SCH_Default; !- CustomDay2 Schedule:Day Name

Schedule:Year,
  ApartmentMidRise CLGSETP_APT_SCH,       !- Name
  Temperature,                            !- Schedule Type Limits Name
  ApartmentMidRise CLGSETP_APT_SCH Week Rule - Jan1-Dec31, !- Schedule:Week Name 1
  1,                                      !- Start Month 1
  1,                                      !- Start Day 1
  12,                                     !- End Month 1
  31;                                     !- End Day 1

Schedule:Day:Interval,
  ApartmentMidRise CLGSETP_APT_SCH_SmrDsn 1, !- Name
  Temperature,                            !- Schedule Type Limits Name
  No,                                     !- Interpolate to Timestep
  24:00,                                  !- Time 1 {hh:mm}
  24.4;                                   !- Value Until Time 1

Schedule:Day:Interval,
  ApartmentMidRise CLGSETP_APT_SCH_WntrDsn 1, !- Name
  Temperature,                            !- Schedule Type Limits Name
  No,                                     !- Interpolate to Timestep
  24:00,                                  !- Time 1 {hh:mm}
  24.4;                                   !- Value Until Time 1

ZoneHVAC:EquipmentConnections,
  1_zonename_80f89f28,                    !- Zone Name
  1_zonename_80f89f28 Equipment List,     !- Zone Conditioning Equipment List Name
  1_zonename_80f89f28 Inlet Node List,    !- Zone Air Inlet Node or NodeList Name
  1_zonename_80f89f28 Exhaust Node List,  !- Zone Air Exhaust Node or NodeList Name
  Node 1;                                 !- Zone Air Node Name

NodeList,
  1_zonename_80f89f28 Inlet Node List,    !- Name
  Node 4;                                 !- Node Name 1

NodeList,
  1_zonename_80f89f28 Exhaust Node List,  !- Name
  Node 3;                                 !- Node Name 1

ZoneHVAC:IdealLoadsAirSystem,
  1_zonename_80f89f28 Ideal Loads Air System, !- Name
  ,                                       !- Availability Schedule Name
  Node 4,                                 !- Zone Supply Air Node Name
  Node 3,                                 !- Zone Exhaust Air Node Name
  ,                                       !- System Inlet Air Node Name
  50,                                     !- Maximum Heating Supply Air Temperature {C}
  13,                                     !- Minimum Cooling Supply Air Temperature {C}
  ,                                       !- Maximum Heating Supply Air Humidity Ratio {kgWater/kgDryAir}
  ,                                       !- Minimum Cooling Supply Air Humidity Ratio {kgWater/kgDryAir}
  LimitCapacity,                          !- Heating Limit
  ,                                       !- Maximum Heating Air Flow Rate {m3/s}
  Autosize,                               !- Maximum Sensible Heating Capacity {W}
  LimitFlowRateAndCapacity,               !- Cooling Limit
  Autosize,                               !- Maximum Cooling Air Flow Rate {m3/s}
  Autosize,                               !- Maximum Total Cooling Capacity {W}
  ,                                       !- Heating Availability Schedule Name
  ,                                       !- Cooling Availability Schedule Name
  ,                                       !- Dehumidification Control Type
  ,                                       !- Cooling Sensible Heat Ratio {dimensionless}
  ,                                       !- Humidification Control Type
  2013::MidriseApartment::Apartment_Ventilation, !- Design Specification Outdoor Air Object Name
  ,                                       !- Outdoor Air Inlet Node Name
  None,                                   !- Demand Controlled Ventilation Type
  DifferentialDryBulb,                    !- Outdoor Air Economizer Type
  ,                                       !- Heat Recovery Type
  0,                                      !- Sensible Heat Recovery Effectiveness {dimensionless}
  0;                                      !- Latent Heat Recovery Effectiveness {dimensionless}

DesignSpecification:OutdoorAir,
  2013::MidriseApartment::Apartment_Ventilation, !- Name
  Sum,                                    !- Outdoor Air Method
  0,                                      !- Outdoor Air Flow per Person {m3/s-person}
  0,                                      !- Outdoor Air Flow per Zone Floor Area {m3/s-m2}
  0,                                      !- Outdoor Air Flow per Zone {m3/s}
  0.35;                                   !- Outdoor Air Flow Air Changes per Hour {1/hr}

ZoneHVAC:EquipmentList,
  1_zonename_80f89f28 Equipment List,     !- Name
  SequentialLoad,                         !- Load Distribution Scheme
  ZoneHVAC:IdealLoadsAirSystem,           !- Zone Equipment Object Type 1
  1_zonename_80f89f28 Ideal Loads Air System, !- Zone Equipment Name 1
  1,                                      !- Zone Equipment Cooling Sequence 1
  1,                                      !- Zone Equipment Heating or No-Load Sequence 1
  ,                                       !- Zone Equipment Sequential Cooling Fraction Schedule Name 1
  ;                                       !- Zone Equipment Sequential Heating Fraction Schedule Name 1

Sizing:Zone,
  1_zonename_80f89f28,                    !- Zone or ZoneList Name
  SupplyAirTemperature,                   !- Zone Cooling Design Supply Air Temperature Input Method
  14,                                     !- Zone Cooling Design Supply Air Temperature {C}
  11.11,                                  !- Zone Cooling Design Supply Air Temperature Difference {deltaC}
  SupplyAirTemperature,                   !- Zone Heating Design Supply Air Temperature Input Method
  40,                                     !- Zone Heating Design Supply Air Temperature {C}
  11.11,                                  !- Zone Heating Design Supply Air Temperature Difference {deltaC}
  0.0085,                                 !- Zone Cooling Design Supply Air Humidity Ratio {kgWater/kgDryAir}
  0.008,                                  !- Zone Heating Design Supply Air Humidity Ratio {kgWater/kgDryAir}
  2013::MidriseApartment::Apartment_Ventilation, !- Design Specification Outdoor Air Object Name
  ,                                       !- Zone Heating Sizing Factor
  ,                                       !- Zone Cooling Sizing Factor
  DesignDay,                              !- Cooling Design Air Flow Method
  0,                                      !- Cooling Design Air Flow Rate {m3/s}
  0.000762,                               !- Cooling Minimum Air Flow per Zone Floor Area {m3/s-m2}
  0,                                      !- Cooling Minimum Air Flow {m3/s}
  0,                                      !- Cooling Minimum Air Flow Fraction
  DesignDay,                              !- Heating Design Air Flow Method
  0,                                      !- Heating Design Air Flow Rate {m3/s}
  0.002032,                               !- Heating Maximum Air Flow per Zone Floor Area {m3/s-m2}
  0.1415762,                              !- Heating Maximum Air Flow {m3/s}
  0.3,                                    !- Heating Maximum Air Flow Fraction
  ,                                       !- Design Specification Zone Air Distribution Object Name
  No;                                     !- Account for Dedicated Outdoor Air System

Zone,
  2_zonename_606f7cd8,                    !- Name
  0,                                      !- Direction of Relative North {deg}
  0,                                      !- X Origin {m}
  0,                                      !- Y Origin {m}
  0,                                      !- Z Origin {m}
  ,                                       !- Type
  1,                                      !- Multiplier
  ,                                       !- Ceiling Height {m}
  ,                                       !- Volume {m3}
  ,                                       !- Floor Area {m2}
  ,                                       !- Zone Inside Convection Algorithm
  ,                                       !- Zone Outside Convection Algorithm
  Yes;                                    !- Part of Total Floor Area

BuildingSurface:Detailed,
  AdiabaticWall_c0868352_0,               !- Name
  Wall,                                   !- Surface Type
  Generic Interior Floor,                 !- Construction Name
  2_zonename_606f7cd8,                    !- Zone Name
  Adiabatic,                              !- Outside Boundary Condition
  ,                                       !- Outside Boundary Condition Object
  NoSun,                                  !- Sun Exposure
  NoWind,                                 !- Wind Exposure
  ,                                       !- View Factor to Ground
  ,                                       !- Number of Vertices
  4.18190003589056, 2.09095001794528, 3.05, !- X,Y,Z Vertex 1 {m}
  4.18190003589056, 2.09095001794528, 0,  !- X,Y,Z Vertex 2 {m}
  0, 2.09095001794528, 0,                 !- X,Y,Z Vertex 3 {m}
  0, 2.09095001794528, 3.05;              !- X,Y,Z Vertex 4 {m}

BuildingSurface:Detailed,
  ExposedWall_5f827bc6_0,                 !- Name
  Wall,                                   !- Surface Type
  ExteriorWall_05cef855,                  !- Construction Name
  2_zonename_606f7cd8,                    !- Zone Name
  Outdoors,                               !- Outside Boundary Condition
  ,                                       !- Outside Boundary Condition Object
  SunExposed,                             !- Sun Exposure
  WindExposed,                            !- Wind Exposure
  ,                                       !- View Factor to Ground
  ,                                       !- Number of Vertices
  4.18190003589056, 0, 3.05,              !- X,Y,Z Vertex 1 {m}
  4.18190003589056, 0, 0,                 !- X,Y,Z Vertex 2 {m}
  4.18190003589056, 2.09095001794528, 0,  !- X,Y,Z Vertex 3 {m}
  4.18190003589056, 2.09095001794528, 3.05; !- X,Y,Z Vertex 4 {m}

BuildingSurface:Detailed,
  ExposedWall_78a0daaf_0,                 !- Name
  Wall,                                   !- Surface Type
  ExteriorWall_05cef855,                  !- Construction Name
  2_zonename_606f7cd8,                    !- Zone Name
  Outdoors,                               !- Outside Boundary Condition
  ,                                       !- Outside Boundary Condition Object
  SunExposed,                             !- Sun Exposure
  WindExposed,                            !- Wind Exposure
  ,                                       !- View Factor to Ground
  ,                                       !- Number of Vertices
  0, 2.09095001794528, 3.05,              !- X,Y,Z Vertex 1 {m}
  0, 2.09095001794528, 0,                 !- X,Y,Z Vertex 2 {m}
  0, 0, 0,                                !- X,Y,Z Vertex 3 {m}
  0, 0, 3.05;                             !- X,Y,Z Vertex 4 {m}

BuildingSurface:Detailed,
  ExposedWall_f34b4019_0,                 !- Name
  Wall,                                   !- Surface Type
  ExteriorWall_05cef855,                  !- Construction Name
  2_zonename_606f7cd8,                    !- Zone Name
  Outdoors,                               !- Outside Boundary Condition
  ,                                       !- Outside Boundary Condition Object
  SunExposed,                             !- Sun Exposure
  WindExposed,                            !- Wind Exposure
  ,                                       !- View Factor to Ground
  ,                                       !- Number of Vertices
  0, 0, 3.05,                             !- X,Y,Z Vertex 1 {m}
  0, 0, 0,                                !- X,Y,Z Vertex 2 {m}
  4.18190003589056, 0, 0,                 !- X,Y,Z Vertex 3 {m}
  4.18190003589056, 0, 3.05;              !- X,Y,Z Vertex 4 {m}

FenestrationSurface:Detailed,
  ExposedWall_f34b4019_0_Glz0,            !- Name
  Window,                                 !- Surface Type
  SGlass_c3b30ffd,                        !- Construction Name
  ExposedWall_f34b4019_0,                 !- Building Surface Name
  ,                                       !- Outside Boundary Condition Object
  ,                                       !- View Factor to Ground
  ,                                       !- Frame and Divider Name
  ,                                       !- Multiplier
  ,                                       !- Number of Vertices
  0.26136875224316, 0, 2.745,             !- X,Y,Z Vertex 1 {m}
  0.26136875224316, 0, 0.305,             !- X,Y,Z Vertex 2 {m}
  3.9205312836474, 0, 0.305,              !- X,Y,Z Vertex 3 {m}
  3.9205312836474, 0, 2.745;              !- X,Y,Z Vertex 4 {m}

BuildingSurface:Detailed,
  Floor_8f33d852_0,                       !- Name
  Floor,                                  !- Surface Type
  Generic Interior Floor,                 !- Construction Name
  2_zonename_606f7cd8,                    !- Zone Name
  Adiabatic,                              !- Outside Boundary Condition
  ,                                       !- Outside Boundary Condition Object
  NoSun,                                  !- Sun Exposure
  NoWind,                                 !- Wind Exposure
  ,                                       !- View Factor to Ground
  ,                                       !- Number of Vertices
  4.18190003589056, 2.09095001794528, 0,  !- X,Y,Z Vertex 1 {m}
  4.18190003589056, 0, 0,                 !- X,Y,Z Vertex 2 {m}
  0, 0, 0,                                !- X,Y,Z Vertex 3 {m}
  0, 2.09095001794528, 0;                 !- X,Y,Z Vertex 4 {m}

BuildingSurface:Detailed,
  RoofCeiling_62382f4b_0,                 !- Name
  Ceiling,                                !- Surface Type
  Generic Interior Ceiling,               !- Construction Name
  2_zonename_606f7cd8,                    !- Zone Name
  Adiabatic,                              !- Outside Boundary Condition
  ,                                       !- Outside Boundary Condition Object
  NoSun,                                  !- Sun Exposure
  NoWind,                                 !- Wind Exposure
  ,                                       !- View Factor to Ground
  ,                                       !- Number of Vertices
  4.18190003589056, 0, 3.05,              !- X,Y,Z Vertex 1 {m}
  4.18190003589056, 2.09095001794528, 3.05, !- X,Y,Z Vertex 2 {m}
  0, 2.09095001794528, 3.05,              !- X,Y,Z Vertex 3 {m}
  0, 0, 3.05;                             !- X,Y,Z Vertex 4 {m}

ZoneControl:Thermostat,
  2_zonename_606f7cd8 Thermostat,         !- Name
  2_zonename_606f7cd8,                    !- Zone or ZoneList Name
  2_zonename_606f7cd8 Thermostat Schedule, !- Control Type Schedule Name
  ThermostatSetpoint:DualSetpoint,        !- Control 1 Object Type
  Thermostat Setpoint Dual Setpoint 2,    !- Control 1 Name
  ,                                       !- Control 2 Object Type
  ,                                       !- Control 2 Name
  ,                                       !- Control 3 Object Type
  ,                                       !- Control 3 Name
  ,                                       !- Control 4 Object Type
  ,                                       !- Control 4 Name
  0;                                      !- Temperature Difference Between Cutout And Setpoint {deltaC}

Schedule:Compact,
  2_zonename_606f7cd8 Thermostat Schedule, !- Name
  2_zonename_606f7cd8 Thermostat Schedule Type Limits, !- Schedule Type Limits Name
  Through: 12/31,                         !- Field 1
  For: AllDays,                           !- Field 2
  Until: 24:00,                           !- Field 3
  4;                                      !- Field 4

ScheduleTypeLimits,
  2_zonename_606f7cd8 Thermostat Schedule Type Limits, !- Name
  0,                                      !- Lower Limit Value {BasedOnField A3}
  4,                                      !- Upper Limit Value {BasedOnField A3}
  DISCRETE;                               !- Numeric Type

ThermostatSetpoint:DualSetpoint,
  Thermostat Setpoint Dual Setpoint 2,    !- Name
  ApartmentMidRise HTGSETP_APT_SCH,       !- Heating Setpoint Temperature Schedule Name
  ApartmentMidRise CLGSETP_APT_SCH;       !- Cooling Setpoint Temperature Schedule Name

ZoneHVAC:EquipmentConnections,